RUNSPEC
NOECHO
TITLE
              Applied Reservoir Simulation Oil Field Problem 
DIMENS
  3  1  10 /
OIL
WATER
GAS
DISGAS
METRIC
EQLDIMS
  1 100 10 1 20 /
TABDIMS
  1 1 19 15 15 15 /
REGDIMS
  1 1 0 0 /
WELLDIMS
  50 50 10 50 /
AQUDIMS
  0 0 0 0 1 200 /
NSTACK
  25 /
START
  1 JAN 1990 /
--NOSIM
MESSAGES
10*10000 /
UNIFIN
UNIFOUT
GRID


INIT
GRIDFILE
 0 1 /

EQUALS
   TOPS    3000   1   3    1    1    1    1   /
   DX      100    1  3  1  1  1  10 /
   DY      100    /
   DZ      10     /
   PORO    0.3    /
   PERMX   1000    /
/   
 
COPY
  PERMX PERMY /
  PERMX PERMZ /
/
MULTIPLY
  PERMZ 1 /
/

--EDIT

--MULTX
-- 9*2 /

PROPS
SWOF
  0.3  0    1    0   
  1    1    0    0 /
  
SGOF
  0    0    1     0 
  0.7  1    0     0   /
DENSITY
  800 1000.00000   1.0 /
PVDG
   20.00000 0.0798032 0.0138748 
  100.00000 0.0153017 0.0164720 
  150.00000 0.0102787 0.0184193 
  200.00000 0.0078715 0.0206959 
  250.00000 0.0064912 0.0231975 
  300.00000 0.0056107 0.0258182 
  331.64797 0.0052048 0.0275552 
  350.00000 0.0050084 0.0285031 
  400.00000 0.0045752 0.0310071 
  450.00000 0.0042485 0.0333907 
  500.00000 0.0039936 0.0356630 
  /
PVTO
  5.24657 20.00000 1.17758 0.18596 /
  52.08454 100.00000 1.39224 0.13381 /
  89.11710 150.00000 1.54245 0.11496 /
  137.04274 200.00000 1.73299 0.09853 /
  204.56215 250.00000 2.00157 0.08352 /
  318       305.00000 2.46369 0.06860 /
  486.56621 350.00000 3.15396 0.05678 /
  510.57638 400.00000 3.15412 0.05650 /
  535.77137 450.00000 3.15428 0.05622 /
  562.20963 500.00000 3.15443 0.05594 
            550.00000 3.05916 0.06039 /
/
PVTW
  300.00000 1.13579 0.00011 0.5 0.00011 /
ROCK
  300 4.0E-5 /

REGIONS

SOLUTION
EQUIL
  3050 305 3085 0 3050 0 1 0 /
RSVD
  3000 318 
  4000 318 
  /
--AQUFETP
--  1 3113.2 337.582 18.0E9 5.0E-5 500 1 /
--/
--AQUANCON
--  1 1 10 1 1 4 4 J- /
--  1 1 10 10 10 4 4 J+ /
--  1 1 1 1 10 4 4 I- /
--  1 10 10 1 10 4 4 I+ /
--/
RPTRST
  BASIC=2 /
SUMMARY
--DATE
FOE
FOPR
FWPR
FGPR
FOPT
FWPT
FGPT
FGIR
FWIR
WBHP
  /
WWCT
  /
WGOR
  /
WOPR
  /
WGPR
  /
WGPT
  /
WWPR
  /
FWCT
FGOR
FPR
FAQR
FAQT
AAQP
  /
--RUNSUM
--SEPARATE

SCHEDULE

TUNING
1 5 0.1 0.15 2 0.3 0.1 1.25  1E20 1* /
/
/
---0.1 0.001 1E-7 0.0001 10 0.01 1E-6 0.001 0.001 /
--12 1 25 1 8 8 4*1E6 /
RPTSCHED
  WELLS=5 /
RPTRST
  BASIC=2 /
WELSPECS
  P1    G    1    1   1*  OIL   /
  W1    G    3    1   1*  WATER /
/
COMPDAT
  P1    2*  1  6  OPEN 0  0.2  0 /
  W1    2*  8  10  OPEN 0  0.2  0 /
/
WCONPROD
P1    OPEN   ORAT  30  /     注100采油30ECL收敛失败
--P1    OPEN   LRAT  3* 100  /  注100采100ECL收敛困难
--P1    OPEN   BHP  5* 100  /    
/
WCONINJE
   W1   WATER    OPEN    RATE   100  1*  350 /  
/
TSTEP
50*30 /
 
END
